<configuration>
<input>
<net-file value="gmu.net.xml"/>
<route-files value="gmu.rou.xml"/>
</input>
<time>
<begin value="0"/>
<end value="10000"/>
</time>
</configuration>